Circuit: * C:\Users\AVera\Documents\GitHub\Jammer-react\Simulation\Draft1.asc

Limiting rise time of source v8 to 0.2
Limiting fall time of source v8 to 0.2
Limiting rise time of source v6 to 0.2
Limiting fall time of source v6 to 0.2
Limiting rise time of source v3 to 0.2
Limiting fall time of source v3 to 0.2
Limiting rise time of source v1 to 0.2
Limiting fall time of source v1 to 0.2
Direct Newton iteration for .op point succeeded.

Date: Wed Jun 06 16:03:41 2018
Total elapsed time: 0.201 seconds.

tnom = 27
temp = 27
method = modified trap
totiter = 3814
traniter = 3781
tranpoints = 1510
accept = 1361
rejected = 149
matrix size = 38
fillins = 0
solver = Normal
Matrix Compiler1: 1.43 KB object code size  1.3/0.7/[0.3]
Matrix Compiler2: 2.59 KB object code size  1.1/1.4/[0.6]

